8

C          0.89343        2.68028        2.68028
C          0.00000        0.00000        0.00000
C          0.89343        0.89343        0.89343
C          0.00000        1.78685        1.78685
C          2.68028        2.68028        0.89343
C          1.78685        0.00000        1.78685
C          2.68028        0.89343        2.68028
C          1.78685        1.78685        0.00000
